Circuit: * C:\Users\Сергей\Desktop\Draft3.asc


Date: Fri Feb 23 10:52:21 2018
Total elapsed time: 0.015 seconds.

tnom = 27
temp = 27
method = trap
totiter = 0
traniter = 0
tranpoints = 0
accept = 0
rejected = 0
matrix size = 3
fillins = 0
solver = Normal

