Circuit: * C:\Users\Сергей\Desktop\Draft1.asc

Limiting rise time of source v1 to 5e-005
Limiting fall time of source v1 to 5e-005
.OP point found by inspection.

Date: Fri Feb 23 10:51:34 2018
Total elapsed time: 0.056 seconds.

tnom = 27
temp = 27
method = modified trap
totiter = 3928
traniter = 3928
tranpoints = 1965
accept = 1555
rejected = 410
matrix size = 5
fillins = 0
solver = Normal
Matrix Compiler1: off  [0.1]/0.1/0.1
Matrix Compiler2: 301 bytes object code size  0.1/0.2/[0.1]


